data/01_test_cases/WB5/t06_n06/branch_data.txt
fbus	tbus	r	x	b	rateA	rateB	rateC	ratio	angle	status	angmin	angmax
1	2	0.04	0.09	   0.0     2500	2500	2500	0	0	1	-360	360
1	3	0.05	0.10       0.0     2500	2500	2500	0	0	1	-360	360
2	4	0.55   	0.90	   0.45    2500	2500	2500	0	0	1	-360	360
3	5	0.55    0.90	   0.45    2500	2500	2500	0	0	1	-360	360
4	5	0.06    0.1        0.0     2500	2500	2500	0	0	1	-360	360
2	3	0.07 	0.09       0.0     2500	2500	2500	0	0	1	-360	360